*Heading
** Job name: raasch_s4_1x9 Model name: raasch_s4_1x9
** Generated by: Abaqus/CAE 2020
*Preprint, echo=NO, model=NO, history=NO, contact=NO
**
** PARTS
**
*Part, name=PART-1
*Node
      1,           0.,           0.,           0.
      2,   1.46339846, 0.0766934678,           0.
      3,   2.91076374,  0.305933595,           0.
      4,   4.32623816,  0.685208797,           0.
      5,   5.69431305,   1.21036363,           0.
      6,           7.,   1.87564433,           0.
      7,   8.22899342,   2.67376208,           0.
      8,   9.36782837,   3.59597254,           0.
      9,   10.4040279,   4.63217163,           0.
     10,   11.3262377,   5.77100658,           0.
     11,   12.1243553,           7.,           0.
     12,   12.8982239,   8.29112148,           0.
     13,   13.7139225,   9.55623055,           0.
     14,   14.5705767,   10.7939739,           0.
     15,   15.4672709,    12.003026,           0.
     16,   16.4030437,   13.1820908,           0.
     17,    17.376894,   14.3299074,           0.
     18,   18.3877773,   15.4452457,           0.
     19,   19.4346123,   16.5269127,           0.
     20,   20.5162792,   17.5737476,           0.
** ... 1896 like lines cut
*Element, type=S4
1,     1,    11, 20011, 20001
2,    11,    21, 20021, 20011
3,    21,    31, 20031, 20021
4,    31,    41, 20041, 20031
5,    41,    51, 20051, 20041
6,    51,    61, 20061, 20051
7,    61,    71, 20071, 20061
8,    71,    81, 20081, 20071
9,    81,    91, 20091, 20081
*Elset, elset=EALL, generate
 1,  9,  1
** Section: Section-1-EALL
*Shell Section, elset=EALL, material=A1
2., 3
*End Part
**  
**
** ASSEMBLY
**
*Assembly, name=Assembly
**  
*Instance, name=PART-1-1, part=PART-1
*End Instance
**  
*Nset, nset=BOT, instance=PART-1-1, generate
  1,  91,   1
*Nset, nset=NALL, instance=PART-1-1
     1,     2,     3,     4,     5,     6,     7,     8,     9,    10,    11,    12,    13,    14,    15,    16
    17,    18,    19,    20,    21,    22,    23,    24,    25,    26,    27,    28,    29,    30,    31,    32
    33,    34,    35,    36,    37,    38,    39,    40,    41,    42,    43,    44,    45,    46,    47,    48
    49,    50,    51,    52,    53,    54,    55,    56,    57,    58,    59,    60,    61,    62,    63,    64
    65,    66,    67,    68,    69,    70,    71,    72,    73,    74,    75,    76,    77,    78,    79,    80
    81,    82,    83,    84,    85,    86,    87,    88,    89,    90,    91,  1001,  1002,  1003,  1004,  1005
  1006,  1007,  1008,  1009,  1010,  1011,  1012,  1013,  1014,  1015,  1016,  1017,  1018,  1019,  1020,  1021
  1022,  1023,  1024,  1025,  1026,  1027,  1028,  1029,  1030,  1031,  1032,  1033,  1034,  1035,  1036,  1037
  1038,  1039,  1040,  1041,  1042,  1043,  1044,  1045,  1046,  1047,  1048,  1049,  1050,  1051,  1052,  1053
  1054,  1055,  1056,  1057,  1058,  1059,  1060,  1061,  1062,  1063,  1064,  1065,  1066,  1067,  1068,  1069
  1070,  1071,  1072,  1073,  1074,  1075,  1076,  1077,  1078,  1079,  1080,  1081,  1082,  1083,  1084,  1085
  1086,  1087,  1088,  1089,  1090,  1091,  2001,  2002,  2003,  2004,  2005,  2006,  2007,  2008,  2009,  2010
  2011,  2012,  2013,  2014,  2015,  2016,  2017,  2018,  2019,  2020,  2021,  2022,  2023,  2024,  2025,  2026
  2027,  2028,  2029,  2030,  2031,  2032,  2033,  2034,  2035,  2036,  2037,  2038,  2039,  2040,  2041,  2042
  2043,  2044,  2045,  2046,  2047,  2048,  2049,  2050,  2051,  2052,  2053,  2054,  2055,  2056,  2057,  2058
  2059,  2060,  2061,  2062,  2063,  2064,  2065,  2066,  2067,  2068,  2069,  2070,  2071,  2072,  2073,  2074
  2075,  2076,  2077,  2078,  2079,  2080,  2081,  2082,  2083,  2084,  2085,  2086,  2087,  2088,  2089,  2090
  2091,  3001,  3002,  3003,  3004,  3005,  3006,  3007,  3008,  3009,  3010,  3011,  3012,  3013,  3014,  3015
  3016,  3017,  3018,  3019,  3020,  3021,  3022,  3023,  3024,  3025,  3026,  3027,  3028,  3029,  3030,  3031
  3032,  3033,  3034,  3035,  3036,  3037,  3038,  3039,  3040,  3041,  3042,  3043,  3044,  3045,  3046,  3047
** ... 100 like lines cut
*Nset, nset=R14-B, instance=PART-1-1, generate
  1,  11,   1
*Nset, nset=R14-T, instance=PART-1-1, generate
 20001,  20011,      1
*Nset, nset=R46-B, instance=PART-1-1, generate
 11,  91,   1
*Nset, nset=R46-T, instance=PART-1-1, generate
 20011,  20091,      1
*Nset, nset=TIP, instance=PART-1-1
    91, 20091
*Nset, nset=TOP, instance=PART-1-1, generate
 20001,  20091,      1
*Nset, nset=WALL, instance=PART-1-1, generate
     1,  20001,   1000
*Nset, nset=_M13, internal, instance=PART-1-1
 100001,
*Nset, nset=_M14, internal, instance=PART-1-1
 100001,
*Elset, elset=_EDGE_E2, internal, instance=PART-1-1
 9,
*Surface, type=ELEMENT, name=EDGE
_EDGE_E2, E2
** Constraint: TIPLOAD
*Coupling, constraint name=TIPLOAD, ref node=_M13, surface=EDGE
*Distributing, weighting method=UNIFORM
*End Assembly
** 
** MATERIALS
** 
*Material, name=A1
*Elastic
3300., 0.35
** 
** BOUNDARY CONDITIONS
** 
** Name: Disp-BC-1 Type: Displacement/Rotation
*Boundary
WALL, 1, 1
WALL, 2, 2
WALL, 3, 3
WALL, 4, 4
WALL, 5, 5
WALL, 6, 6
** ----------------------------------------------------------------
** 
** STEP: Step-1
** 
*Step, name=Step-1, nlgeom=NO, perturbation
*Static
** 
** LOADS
** 
** Name: CFORCE-1   Type: Concentrated force
*Cload
_M14, 3, 1.
** 
** OUTPUT REQUESTS
** 
** 
** FIELD OUTPUT: F-Output-1
** 
*Output, field
*Node Output, nset=TIP
U, 
*Output, history, frequency=0
*End Step
