*Heading
** Job name: Job-1 Model name: raasch_s4_20x144
** Generated by: Abaqus/CAE 2020
*Preprint, echo=NO, model=NO, history=NO, contact=NO
**
** PARTS
**
*Part, name=PART-1
*Node
      1,           0.,           0.,           0.
      2,  0.915643811, 0.0299750753,           0.
      3,   1.82736671,  0.119771942,           0.
      4,   2.73126459,  0.269006073,           0.
      5,   3.62346673,  0.477038443,           0.
      6,   4.50015259,  0.742978215,           0.
      7,   5.35756826,   1.06568658,           0.
      8,   6.19204187,   1.44378161,           0.
      9,           7.,   1.87564433,           0.
     10,   7.77798319,   2.35942554,           0.
     11,   8.52266026,   2.89305329,           0.
     12,   9.23084164,   3.47424269,           0.
     13,   9.89949512,   4.10050488,           0.
     14,   10.5257568,   4.76915836,           0.
     15,   11.1069469,   5.47734022,           0.
     16,   11.6405745,   6.22201681,           0.
     17,   12.1243553,           7.,           0.
     18,    12.603076,   7.80992508,           0.
     19,   13.0982599,   8.60989094,           0.
     20,   13.6097021,   9.39956093,           0.
** ... 3030 like lines cut
*Element, type=S4
    1,     1,     2,  1002,  1001
    2,     2,     3,  1003,  1002
    3,     3,     4,  1004,  1003
    4,     4,     5,  1005,  1004
    5,     5,     6,  1006,  1005
    6,     6,     7,  1007,  1006
    7,     7,     8,  1008,  1007
    8,     8,     9,  1009,  1008
    9,     9,    10,  1010,  1009
   10,    10,    11,  1011,  1010
   11,    11,    12,  1012,  1011
   12,    12,    13,  1013,  1012
   13,    13,    14,  1014,  1013
   14,    14,    15,  1015,  1014
   15,    15,    16,  1016,  1015
   16,    16,    17,  1017,  1016
   17,    17,    18,  1018,  1017
   18,    18,    19,  1019,  1018
   19,    19,    20,  1020,  1019
   20,    20,    21,  1021,  1020
** ... 2860 like lines cut
*Elset, elset=EALL
     1,     2,     3,     4,     5,     6,     7,     8,     9,    10,    11,    12,    13,    14,    15,    16
    17,    18,    19,    20,    21,    22,    23,    24,    25,    26,    27,    28,    29,    30,    31,    32
    33,    34,    35,    36,    37,    38,    39,    40,    41,    42,    43,    44,    45,    46,    47,    48
    49,    50,    51,    52,    53,    54,    55,    56,    57,    58,    59,    60,    61,    62,    63,    64
    65,    66,    67,    68,    69,    70,    71,    72,    73,    74,    75,    76,    77,    78,    79,    80
    81,    82,    83,    84,    85,    86,    87,    88,    89,    90,    91,    92,    93,    94,    95,    96
    97,    98,    99,   100,   101,   102,   103,   104,   105,   106,   107,   108,   109,   110,   111,   112
   113,   114,   115,   116,   117,   118,   119,   120,   121,   122,   123,   124,   125,   126,   127,   128
   129,   130,   131,   132,   133,   134,   135,   136,   137,   138,   139,   140,   141,   142,   143,   144
  1001,  1002,  1003,  1004,  1005,  1006,  1007,  1008,  1009,  1010,  1011,  1012,  1013,  1014,  1015,  1016
  1017,  1018,  1019,  1020,  1021,  1022,  1023,  1024,  1025,  1026,  1027,  1028,  1029,  1030,  1031,  1032
  1033,  1034,  1035,  1036,  1037,  1038,  1039,  1040,  1041,  1042,  1043,  1044,  1045,  1046,  1047,  1048
  1049,  1050,  1051,  1052,  1053,  1054,  1055,  1056,  1057,  1058,  1059,  1060,  1061,  1062,  1063,  1064
  1065,  1066,  1067,  1068,  1069,  1070,  1071,  1072,  1073,  1074,  1075,  1076,  1077,  1078,  1079,  1080
  1081,  1082,  1083,  1084,  1085,  1086,  1087,  1088,  1089,  1090,  1091,  1092,  1093,  1094,  1095,  1096
  1097,  1098,  1099,  1100,  1101,  1102,  1103,  1104,  1105,  1106,  1107,  1108,  1109,  1110,  1111,  1112
  1113,  1114,  1115,  1116,  1117,  1118,  1119,  1120,  1121,  1122,  1123,  1124,  1125,  1126,  1127,  1128
  1129,  1130,  1131,  1132,  1133,  1134,  1135,  1136,  1137,  1138,  1139,  1140,  1141,  1142,  1143,  1144
  2001,  2002,  2003,  2004,  2005,  2006,  2007,  2008,  2009,  2010,  2011,  2012,  2013,  2014,  2015,  2016
  2017,  2018,  2019,  2020,  2021,  2022,  2023,  2024,  2025,  2026,  2027,  2028,  2029,  2030,  2031,  2032
** ... 160 like lines cut
** Section: Section-1-EALL
*Shell Section, elset=EALL, material=A1
2., 3
*End Part
**  
**
** ASSEMBLY
**
*Assembly, name=Assembly
**  
*Instance, name=PART-1-1, part=PART-1
*End Instance
**  
*Nset, nset=BOT, instance=PART-1-1, generate
   1,  145,    1
*Elset, elset=EDGE, instance=PART-1-1, generate
   144,  19144,   1000
*Nset, nset=NALL, instance=PART-1-1
     1,     2,     3,     4,     5,     6,     7,     8,     9,    10,    11,    12,    13,    14,    15,    16
    17,    18,    19,    20,    21,    22,    23,    24,    25,    26,    27,    28,    29,    30,    31,    32
    33,    34,    35,    36,    37,    38,    39,    40,    41,    42,    43,    44,    45,    46,    47,    48
    49,    50,    51,    52,    53,    54,    55,    56,    57,    58,    59,    60,    61,    62,    63,    64
    65,    66,    67,    68,    69,    70,    71,    72,    73,    74,    75,    76,    77,    78,    79,    80
    81,    82,    83,    84,    85,    86,    87,    88,    89,    90,    91,    92,    93,    94,    95,    96
    97,    98,    99,   100,   101,   102,   103,   104,   105,   106,   107,   108,   109,   110,   111,   112
   113,   114,   115,   116,   117,   118,   119,   120,   121,   122,   123,   124,   125,   126,   127,   128
   129,   130,   131,   132,   133,   134,   135,   136,   137,   138,   139,   140,   141,   142,   143,   144
   145,  1001,  1002,  1003,  1004,  1005,  1006,  1007,  1008,  1009,  1010,  1011,  1012,  1013,  1014,  1015
  1016,  1017,  1018,  1019,  1020,  1021,  1022,  1023,  1024,  1025,  1026,  1027,  1028,  1029,  1030,  1031
  1032,  1033,  1034,  1035,  1036,  1037,  1038,  1039,  1040,  1041,  1042,  1043,  1044,  1045,  1046,  1047
  1048,  1049,  1050,  1051,  1052,  1053,  1054,  1055,  1056,  1057,  1058,  1059,  1060,  1061,  1062,  1063
  1064,  1065,  1066,  1067,  1068,  1069,  1070,  1071,  1072,  1073,  1074,  1075,  1076,  1077,  1078,  1079
  1080,  1081,  1082,  1083,  1084,  1085,  1086,  1087,  1088,  1089,  1090,  1091,  1092,  1093,  1094,  1095
  1096,  1097,  1098,  1099,  1100,  1101,  1102,  1103,  1104,  1105,  1106,  1107,  1108,  1109,  1110,  1111
  1112,  1113,  1114,  1115,  1116,  1117,  1118,  1119,  1120,  1121,  1122,  1123,  1124,  1125,  1126,  1127
  1128,  1129,  1130,  1131,  1132,  1133,  1134,  1135,  1136,  1137,  1138,  1139,  1140,  1141,  1142,  1143
  1144,  1145,  2001,  2002,  2003,  2004,  2005,  2006,  2007,  2008,  2009,  2010,  2011,  2012,  2013,  2014
  2015,  2016,  2017,  2018,  2019,  2020,  2021,  2022,  2023,  2024,  2025,  2026,  2027,  2028,  2029,  2030
** ... 171 like lines cut
*Nset, nset=R14-B, instance=PART-1-1, generate
  1,  17,   1
*Nset, nset=R14-T, instance=PART-1-1, generate
 20001,  20017,      1
*Nset, nset=R46-B, instance=PART-1-1, generate
  17,  145,    1
*Nset, nset=R46-T, instance=PART-1-1, generate
 20017,  20145,      1
*Nset, nset=TIP, instance=PART-1-1, generate
   145,  20145,   1000
*Nset, nset=TOP, instance=PART-1-1, generate
 20001,  20145,      1
*Nset, nset=WALL, instance=PART-1-1, generate
     1,  20001,   1000
*Nset, nset=_M14, internal, instance=PART-1-1
 100001,
*Nset, nset=_M15, internal, instance=PART-1-1
 100001,
*Elset, elset=_EDGE_E2, internal, instance=PART-1-1, generate
   144,  19144,   1000
*Surface, type=ELEMENT, name=EDGE
_EDGE_E2, E2
** Constraint: TIPLOAD
*Coupling, constraint name=TIPLOAD, ref node=_M14, surface=EDGE
*Distributing, weighting method=UNIFORM
*End Assembly
** 
** MATERIALS
** 
*Material, name=A1
*Elastic
3300., 0.35
** 
** BOUNDARY CONDITIONS
** 
** Name: Disp-BC-1 Type: Displacement/Rotation
*Boundary
WALL, 1, 1
WALL, 2, 2
WALL, 3, 3
WALL, 4, 4
WALL, 5, 5
WALL, 6, 6
** ----------------------------------------------------------------
** 
** STEP: Step-1
** 
*Step, name=Step-1, nlgeom=NO, perturbation
*Static
** 
** LOADS
** 
** Name: CFORCE-1   Type: Concentrated force
*Cload
_M15, 3, 1.
** 
** OUTPUT REQUESTS
** 
** 
** FIELD OUTPUT: F-Output-1
** 
*Output, field
*Node Output, nset=TIP
U, 
*Output, history, frequency=0
*End Step
