*Heading
** Job name: raasch_s4_3x18 Model name: raasch_s4_3x18
** Generated by: Abaqus/CAE 2020
*Preprint, echo=NO, model=NO, history=NO, contact=NO
**
** PARTS
**
*Part, name=PART-1
*Node
      1,           0.,           0.,           0.
      2,   1.46339846, 0.0766934678,           0.
      3,   2.91076374,  0.305933595,           0.
      4,   4.32623816,  0.685208797,           0.
      5,   5.69431305,   1.21036363,           0.
      6,           7.,   1.87564433,           0.
      7,   8.22899342,   2.67376208,           0.
      8,   9.36782837,   3.59597254,           0.
      9,   10.4040279,   4.63217163,           0.
     10,   11.3262377,   5.77100658,           0.
     11,   12.1243553,           7.,           0.
     12,   12.8982239,   8.29112148,           0.
     13,   13.7139225,   9.55623055,           0.
     14,   14.5705767,   10.7939739,           0.
     15,   15.4672709,    12.003026,           0.
     16,   16.4030437,   13.1820908,           0.
     17,    17.376894,   14.3299074,           0.
     18,   18.3877773,   15.4452457,           0.
     19,   19.4346123,   16.5269127,           0.
     20,   20.5162792,   17.5737476,           0.
** ... 349 like lines cut
*Element, type=S4
  1,    1,    6, 1006, 1001
  2,    6,   11, 1011, 1006
  3,   11,   16, 1016, 1011
  4,   16,   21, 1021, 1016
  5,   21,   26, 1026, 1021
  6,   26,   31, 1031, 1026
  7,   31,   36, 1036, 1031
  8,   36,   41, 1041, 1036
  9,   41,   46, 1046, 1041
 10,   46,   51, 1051, 1046
 11,   51,   56, 1056, 1051
 12,   56,   61, 1061, 1056
 13,   61,   66, 1066, 1061
 14,   66,   71, 1071, 1066
 15,   71,   76, 1076, 1071
 16,   76,   81, 1081, 1076
 17,   81,   86, 1086, 1081
 18,   86,   91, 1091, 1086
101, 1001, 1006, 2006, 2001
102, 1006, 1011, 2011, 2006
** ... 34 like lines cut
*Elset, elset=EALL
   1,   2,   3,   4,   5,   6,   7,   8,   9,  10,  11,  12,  13,  14,  15,  16
  17,  18, 101, 102, 103, 104, 105, 106, 107, 108, 109, 110, 111, 112, 113, 114
 115, 116, 117, 118, 201, 202, 203, 204, 205, 206, 207, 208, 209, 210, 211, 212
 213, 214, 215, 216, 217, 218
** Section: Section-1-EALL
*Shell Section, elset=EALL, material=A1
2., 3
*End Part
**  
**
** ASSEMBLY
**
*Assembly, name=Assembly
**  
*Instance, name=PART-1-1, part=PART-1
*End Instance
**  
*Nset, nset=BOT, instance=PART-1-1, generate
  1,  91,   1
*Nset, nset=NALL, instance=PART-1-1
    1,    2,    3,    4,    5,    6,    7,    8,    9,   10,   11,   12,   13,   14,   15,   16
   17,   18,   19,   20,   21,   22,   23,   24,   25,   26,   27,   28,   29,   30,   31,   32
   33,   34,   35,   36,   37,   38,   39,   40,   41,   42,   43,   44,   45,   46,   47,   48
   49,   50,   51,   52,   53,   54,   55,   56,   57,   58,   59,   60,   61,   62,   63,   64
   65,   66,   67,   68,   69,   70,   71,   72,   73,   74,   75,   76,   77,   78,   79,   80
   81,   82,   83,   84,   85,   86,   87,   88,   89,   90,   91, 1001, 1002, 1003, 1004, 1005
 1006, 1007, 1008, 1009, 1010, 1011, 1012, 1013, 1014, 1015, 1016, 1017, 1018, 1019, 1020, 1021
 1022, 1023, 1024, 1025, 1026, 1027, 1028, 1029, 1030, 1031, 1032, 1033, 1034, 1035, 1036, 1037
 1038, 1039, 1040, 1041, 1042, 1043, 1044, 1045, 1046, 1047, 1048, 1049, 1050, 1051, 1052, 1053
 1054, 1055, 1056, 1057, 1058, 1059, 1060, 1061, 1062, 1063, 1064, 1065, 1066, 1067, 1068, 1069
 1070, 1071, 1072, 1073, 1074, 1075, 1076, 1077, 1078, 1079, 1080, 1081, 1082, 1083, 1084, 1085
 1086, 1087, 1088, 1089, 1090, 1091, 2001, 2002, 2003, 2004, 2005, 2006, 2007, 2008, 2009, 2010
 2011, 2012, 2013, 2014, 2015, 2016, 2017, 2018, 2019, 2020, 2021, 2022, 2023, 2024, 2025, 2026
 2027, 2028, 2029, 2030, 2031, 2032, 2033, 2034, 2035, 2036, 2037, 2038, 2039, 2040, 2041, 2042
 2043, 2044, 2045, 2046, 2047, 2048, 2049, 2050, 2051, 2052, 2053, 2054, 2055, 2056, 2057, 2058
 2059, 2060, 2061, 2062, 2063, 2064, 2065, 2066, 2067, 2068, 2069, 2070, 2071, 2072, 2073, 2074
 2075, 2076, 2077, 2078, 2079, 2080, 2081, 2082, 2083, 2084, 2085, 2086, 2087, 2088, 2089, 2090
 2091, 3001, 3002, 3003, 3004, 3005, 3006, 3007, 3008, 3009, 3010, 3011, 3012, 3013, 3014, 3015
 3016, 3017, 3018, 3019, 3020, 3021, 3022, 3023, 3024, 3025, 3026, 3027, 3028, 3029, 3030, 3031
 3032, 3033, 3034, 3035, 3036, 3037, 3038, 3039, 3040, 3041, 3042, 3043, 3044, 3045, 3046, 3047
 3048, 3049, 3050, 3051, 3052, 3053, 3054, 3055, 3056, 3057, 3058, 3059, 3060, 3061, 3062, 3063
 3064, 3065, 3066, 3067, 3068, 3069, 3070, 3071, 3072, 3073, 3074, 3075, 3076, 3077, 3078, 3079
 3080, 3081, 3082, 3083, 3084, 3085, 3086, 3087, 3088, 3089, 3090, 3091
*Nset, nset=R14-B, instance=PART-1-1, generate
  1,  11,   1
*Nset, nset=R14-T, instance=PART-1-1, generate
 3001,  3011,     1
*Nset, nset=R46-B, instance=PART-1-1, generate
 11,  91,   1
*Nset, nset=R46-T, instance=PART-1-1, generate
 3011,  3091,     1
*Nset, nset=TIP, instance=PART-1-1, generate
   91,  3091,  1000
*Nset, nset=TOP, instance=PART-1-1, generate
 3001,  3091,     1
*Nset, nset=WALL, instance=PART-1-1, generate
    1,  3001,  1000
*Nset, nset=_M13, internal, instance=PART-1-1
 100001,
*Nset, nset=_M14, internal, instance=PART-1-1
 100001,
*Elset, elset=_EDGE_E2, internal, instance=PART-1-1, generate
  18,  218,  100
*Surface, type=ELEMENT, name=EDGE
_EDGE_E2, E2
** Constraint: TIPLOAD
*Coupling, constraint name=TIPLOAD, ref node=_M13, surface=EDGE
*Distributing, weighting method=UNIFORM
*End Assembly
** 
** MATERIALS
** 
*Material, name=A1
*Elastic
3300., 0.35
** 
** BOUNDARY CONDITIONS
** 
** Name: Disp-BC-1 Type: Displacement/Rotation
*Boundary
WALL, 1, 1
WALL, 2, 2
WALL, 3, 3
WALL, 4, 4
WALL, 5, 5
WALL, 6, 6
** ----------------------------------------------------------------
** 
** STEP: Step-1
** 
*Step, name=Step-1, nlgeom=NO, perturbation
*Static
** 
** LOADS
** 
** Name: CFORCE-1   Type: Concentrated force
*Cload
_M14, 3, 1.
** 
** OUTPUT REQUESTS
** 
** 
** FIELD OUTPUT: F-Output-1
** 
*Output, field
*Node Output, nset=TIP
U, 
*Output, history, frequency=0
*End Step
