*Heading
** Job name: raasch_s4_5x36 Model name: raasch_s4_5x36
** Generated by: Abaqus/CAE 2020
*Preprint, echo=NO, model=NO, history=NO, contact=NO
**
** PARTS
**
*Part, name=PART-1
*Node
      1,           0.,           0.,           0.
      2,   3.62346673,  0.477038443,           0.
      3,           7.,   1.87564433,           0.
      4,   9.89949512,   4.10050488,           0.
      5,   12.1243553,           7.,           0.
      6,   14.1371861,    10.178607,           0.
      7,   16.4030437,   13.1820908,           0.
      8,   18.9067707,   15.9903612,           0.
      9,   21.6316166,    18.584631,           0.
     10,   24.5593567,    20.947546,           0.
     11,   27.6704025,   23.0633011,           0.
     12,   30.9439468,   24.9177399,           0.
     13,   34.3580856,   26.4984589,           0.
     14,   37.8899841,   27.7948837,           0.
     15,   41.5160179,   28.7983418,           0.
     16,   45.2119217,   29.5021191,           0.
     17,     48.95298,   29.9015102,           0.
     18,   52.7141647,   29.9938431,           0.
     19,    56.470314,   29.7784977,           0.
     20,   60.1963005,    29.256916,           0.
** ... 207 like lines cut
*Element, type=S4
  1,    1,    2, 1002, 1001
  2,    2,    3, 1003, 1002
  3,    3,    4, 1004, 1003
  4,    4,    5, 1005, 1004
  5,    5,    6, 1006, 1005
  6,    6,    7, 1007, 1006
  7,    7,    8, 1008, 1007
  8,    8,    9, 1009, 1008
  9,    9,   10, 1010, 1009
 10,   10,   11, 1011, 1010
 11,   11,   12, 1012, 1011
 12,   12,   13, 1013, 1012
 13,   13,   14, 1014, 1013
 14,   14,   15, 1015, 1014
 15,   15,   16, 1016, 1015
 16,   16,   17, 1017, 1016
 17,   17,   18, 1018, 1017
 18,   18,   19, 1019, 1018
 19,   19,   20, 1020, 1019
 20,   20,   21, 1021, 1020
** ... 160 like lines cut
*Elset, elset=EALL
   1,   2,   3,   4,   5,   6,   7,   8,   9,  10,  11,  12,  13,  14,  15,  16
  17,  18,  19,  20,  21,  22,  23,  24,  25,  26,  27,  28,  29,  30,  31,  32
  33,  34,  35,  36, 101, 102, 103, 104, 105, 106, 107, 108, 109, 110, 111, 112
 113, 114, 115, 116, 117, 118, 119, 120, 121, 122, 123, 124, 125, 126, 127, 128
 129, 130, 131, 132, 133, 134, 135, 136, 201, 202, 203, 204, 205, 206, 207, 208
 209, 210, 211, 212, 213, 214, 215, 216, 217, 218, 219, 220, 221, 222, 223, 224
 225, 226, 227, 228, 229, 230, 231, 232, 233, 234, 235, 236, 301, 302, 303, 304
 305, 306, 307, 308, 309, 310, 311, 312, 313, 314, 315, 316, 317, 318, 319, 320
 321, 322, 323, 324, 325, 326, 327, 328, 329, 330, 331, 332, 333, 334, 335, 336
 401, 402, 403, 404, 405, 406, 407, 408, 409, 410, 411, 412, 413, 414, 415, 416
 417, 418, 419, 420, 421, 422, 423, 424, 425, 426, 427, 428, 429, 430, 431, 432
 433, 434, 435, 436
** Section: Section-1-EALL
*Shell Section, elset=EALL, material=A1
2., 3
*End Part
**  
**
** ASSEMBLY
**
*Assembly, name=Assembly
**  
*Instance, name=PART-1-1, part=PART-1
*End Instance
**  
*Nset, nset=BOT, instance=PART-1-1, generate
  1,  37,   1
*Nset, nset=NALL, instance=PART-1-1
    1,    2,    3,    4,    5,    6,    7,    8,    9,   10,   11,   12,   13,   14,   15,   16
   17,   18,   19,   20,   21,   22,   23,   24,   25,   26,   27,   28,   29,   30,   31,   32
   33,   34,   35,   36,   37, 1001, 1002, 1003, 1004, 1005, 1006, 1007, 1008, 1009, 1010, 1011
 1012, 1013, 1014, 1015, 1016, 1017, 1018, 1019, 1020, 1021, 1022, 1023, 1024, 1025, 1026, 1027
 1028, 1029, 1030, 1031, 1032, 1033, 1034, 1035, 1036, 1037, 2001, 2002, 2003, 2004, 2005, 2006
 2007, 2008, 2009, 2010, 2011, 2012, 2013, 2014, 2015, 2016, 2017, 2018, 2019, 2020, 2021, 2022
 2023, 2024, 2025, 2026, 2027, 2028, 2029, 2030, 2031, 2032, 2033, 2034, 2035, 2036, 2037, 3001
 3002, 3003, 3004, 3005, 3006, 3007, 3008, 3009, 3010, 3011, 3012, 3013, 3014, 3015, 3016, 3017
 3018, 3019, 3020, 3021, 3022, 3023, 3024, 3025, 3026, 3027, 3028, 3029, 3030, 3031, 3032, 3033
 3034, 3035, 3036, 3037, 4001, 4002, 4003, 4004, 4005, 4006, 4007, 4008, 4009, 4010, 4011, 4012
 4013, 4014, 4015, 4016, 4017, 4018, 4019, 4020, 4021, 4022, 4023, 4024, 4025, 4026, 4027, 4028
 4029, 4030, 4031, 4032, 4033, 4034, 4035, 4036, 4037, 5001, 5002, 5003, 5004, 5005, 5006, 5007
 5008, 5009, 5010, 5011, 5012, 5013, 5014, 5015, 5016, 5017, 5018, 5019, 5020, 5021, 5022, 5023
 5024, 5025, 5026, 5027, 5028, 5029, 5030, 5031, 5032, 5033, 5034, 5035, 5036, 5037
*Nset, nset=R14-B, instance=PART-1-1, generate
 1,  5,  1
*Nset, nset=R14-T, instance=PART-1-1, generate
 5001,  5005,     1
*Nset, nset=R46-B, instance=PART-1-1, generate
  5,  37,   1
*Nset, nset=R46-T, instance=PART-1-1, generate
 5005,  5037,     1
*Nset, nset=TIP, instance=PART-1-1, generate
   37,  5037,  1000
*Nset, nset=TOP, instance=PART-1-1, generate
 5001,  5037,     1
*Nset, nset=WALL, instance=PART-1-1, generate
    1,  5001,  1000
*Nset, nset=_M13, internal, instance=PART-1-1
 100001,
*Nset, nset=_M14, internal, instance=PART-1-1
 100001,
*Elset, elset=_EDGE_E2, internal, instance=PART-1-1, generate
  36,  436,  100
*Surface, type=ELEMENT, name=EDGE
_EDGE_E2, E2
** Constraint: TIPLOAD
*Coupling, constraint name=TIPLOAD, ref node=_M13, surface=EDGE
*Distributing, weighting method=UNIFORM
*End Assembly
** 
** MATERIALS
** 
*Material, name=A1
*Elastic
3300., 0.35
** 
** BOUNDARY CONDITIONS
** 
** Name: Disp-BC-1 Type: Displacement/Rotation
*Boundary
WALL, 1, 1
WALL, 2, 2
WALL, 3, 3
WALL, 4, 4
WALL, 5, 5
WALL, 6, 6
** ----------------------------------------------------------------
** 
** STEP: Step-1
** 
*Step, name=Step-1, nlgeom=NO, perturbation
*Static
** 
** LOADS
** 
** Name: CFORCE-1   Type: Concentrated force
*Cload
_M14, 3, 1.
** 
** OUTPUT REQUESTS
** 
** 
** FIELD OUTPUT: F-Output-1
** 
*Output, field
*Node Output, nset=TIP
U, 
*Output, history, frequency=0
*End Step
