*Heading
** Job name: Job-1 Model name: nle5xf3c
** Generated by: Abaqus/CAE 2025
*Preprint, echo=NO, model=NO, history=NO, contact=NO
**
** PARTS
**
*Part, name=PART-1
*Node
      1,           0.,          -1.,          -1.
      2,        0.625,          -1.,          -1.
      3,         1.25,          -1.,          -1.
      4,        1.875,          -1.,          -1.
      5,          2.5,          -1.,          -1.
      6,        3.125,          -1.,          -1.
      7,         3.75,          -1.,          -1.
      8,        4.375,          -1.,          -1.
      9,           5.,          -1.,          -1.
     10,        5.625,          -1.,          -1.
     11,         6.25,          -1.,          -1.
     12,        6.875,          -1.,          -1.
     13,          7.5,          -1.,          -1.
     14,        8.125,          -1.,          -1.
     15,         8.75,          -1.,          -1.
     16,        9.375,          -1.,          -1.
     17,          10.,          -1.,          -1.
     51,           0.,          -1.,         -0.5
     52,        0.625,          -1.,         -0.5
     53,         1.25,          -1.,         -0.5
** ... 99 like lines cut
*Element, type=S4R
75, 215, 217, 317, 315
65, 213, 215, 315, 313
55, 211, 213, 313, 311
45, 209, 211, 311, 309
35, 207, 209, 309, 307
73, 115, 117, 217, 215
 3, 101, 103, 203, 201
13, 103, 105, 205, 203
 5, 201, 203, 303, 301
15, 203, 205, 305, 303
25, 205, 207, 307, 305
71,  15,  17, 117, 115
61,  13,  15, 115, 113
51,  11,  13, 113, 111
41,   9,  11, 111, 109
31,   7,   9, 109, 107
21,   5,   7, 107, 105
11,   3,   5, 105, 103
 1,   1,   3, 103, 101
23, 105, 107, 207, 205
** ... 4 like lines cut
*Elset, elset=EALL
  1,  3,  5, 11, 13, 15, 21, 23, 25, 31, 33, 35, 41, 43, 45, 51
 53, 55, 61, 63, 65, 71, 73, 75
** Section: Section-1-EALL
*Shell Section, elset=EALL, material=MAT
0.1, 5
*End Part
**  
**
** ASSEMBLY
**
*Assembly, name=Assembly
**  
*Instance, name=PART-1-1, part=PART-1
*End Instance
**  
*Nset, nset=FIX, instance=PART-1-1, generate
   1,  301,   50
*Elset, elset=PRINT, instance=PART-1-1
 11, 21
*Nset, nset=_M5, internal, instance=PART-1-1
 217, 317
*Nset, nset=_M6, internal, instance=PART-1-1
  17, 117
*End Assembly
** 
** MATERIALS
** 
*Material, name=MAT
*Elastic
 2.1e+11, 0.3
** 
** BOUNDARY CONDITIONS
** 
** Name: Disp-BC-1 Type: Symmetry/Antisymmetry/Encastre
*Boundary
FIX, ENCASTRE
** ----------------------------------------------------------------
** 
** STEP: Step-1
** 
*Step, name=Step-1, nlgeom=NO
*Static
1., 1., 1e-05, 1.
** 
** LOADS
** 
** Name: CFORCE-1   Type: Concentrated force
*Cload
_M5, 3, 300000.
** Name: CFORCE-2   Type: Concentrated force
*Cload
_M6, 3, -300000.
** 
** OUTPUT REQUESTS
** 
*Restart, write, frequency=0
** 
** FIELD OUTPUT: F-Output-2
** 
*Output, field
*Element Output, directions=YES
ALPHA, ALPHAN, CS11, CTSHR, E, EE, EEQUT, ER, IE, LE, MISES, MISESMAX, MISESONLY, NE, PE, PEEQ
PEEQMAX, PEEQT, PEMAG, PEQC, PRESSONLY, PS, S, SALPHA, SE, SEE, SEP, SEPE, SEQUT, SPE, SSAVG, TE
TEEQ, TEVOL, THE, TRIAX, TSHR, VE, VEEQ, VS, YIELDPOT
** 
** FIELD OUTPUT: F-Output-1
** 
*Node Output
COORD, U, UR, UT, V, VR, VT
*Element Output, directions=YES
COORD, 
*Output, history, frequency=0
*End Step
