*Heading
** Job name: raasch_s4_10x72 Model name: raasch_s4_10x72
** Generated by: Abaqus/CAE 2020
*Preprint, echo=NO, model=NO, history=NO, contact=NO
**
** PARTS
**
*Part, name=PART-1
*Node
      1,           0.,           0.,           0.
      2,   1.82736671,  0.119771942,           0.
      3,   3.62346673,  0.477038443,           0.
      4,   5.35756826,   1.06568658,           0.
      5,           7.,   1.87564433,           0.
      6,   8.52266026,   2.89305329,           0.
      7,   9.89949512,   4.10050488,           0.
      8,   11.1069469,   5.47734022,           0.
      9,   12.1243553,           7.,           0.
     10,   13.0982599,   8.60989094,           0.
     11,   14.1371861,    10.178607,           0.
     12,   15.2393951,   11.7035236,           0.
     13,   16.4030437,   13.1820908,           0.
     14,   17.6261845,   14.6118345,           0.
     15,   18.9067707,   15.9903612,           0.
     16,   20.2426586,   17.3153667,           0.
     17,   21.6316166,    18.584631,           0.
     18,   23.0713196,   19.7960339,           0.
     19,   24.5593567,    20.947546,           0.
     20,   26.0932407,   22.0372429,           0.
** ... 788 like lines cut
*Element, type=S4
  1,     1,     2,  1002,  1001
  2,     2,     3,  1003,  1002
  3,     3,     4,  1004,  1003
  4,     4,     5,  1005,  1004
  5,     5,     6,  1006,  1005
  6,     6,     7,  1007,  1006
  7,     7,     8,  1008,  1007
  8,     8,     9,  1009,  1008
  9,     9,    10,  1010,  1009
 10,    10,    11,  1011,  1010
 11,    11,    12,  1012,  1011
 12,    12,    13,  1013,  1012
 13,    13,    14,  1014,  1013
 14,    14,    15,  1015,  1014
 15,    15,    16,  1016,  1015
 16,    16,    17,  1017,  1016
 17,    17,    18,  1018,  1017
 18,    18,    19,  1019,  1018
 19,    19,    20,  1020,  1019
 20,    20,    21,  1021,  1020
** ... 700 like lines cut
*Elset, elset=EALL
   1,   2,   3,   4,   5,   6,   7,   8,   9,  10,  11,  12,  13,  14,  15,  16
  17,  18,  19,  20,  21,  22,  23,  24,  25,  26,  27,  28,  29,  30,  31,  32
  33,  34,  35,  36,  37,  38,  39,  40,  41,  42,  43,  44,  45,  46,  47,  48
  49,  50,  51,  52,  53,  54,  55,  56,  57,  58,  59,  60,  61,  62,  63,  64
  65,  66,  67,  68,  69,  70,  71,  72, 101, 102, 103, 104, 105, 106, 107, 108
 109, 110, 111, 112, 113, 114, 115, 116, 117, 118, 119, 120, 121, 122, 123, 124
 125, 126, 127, 128, 129, 130, 131, 132, 133, 134, 135, 136, 137, 138, 139, 140
 141, 142, 143, 144, 145, 146, 147, 148, 149, 150, 151, 152, 153, 154, 155, 156
 157, 158, 159, 160, 161, 162, 163, 164, 165, 166, 167, 168, 169, 170, 171, 172
 201, 202, 203, 204, 205, 206, 207, 208, 209, 210, 211, 212, 213, 214, 215, 216
 217, 218, 219, 220, 221, 222, 223, 224, 225, 226, 227, 228, 229, 230, 231, 232
 233, 234, 235, 236, 237, 238, 239, 240, 241, 242, 243, 244, 245, 246, 247, 248
 249, 250, 251, 252, 253, 254, 255, 256, 257, 258, 259, 260, 261, 262, 263, 264
 265, 266, 267, 268, 269, 270, 271, 272, 301, 302, 303, 304, 305, 306, 307, 308
 309, 310, 311, 312, 313, 314, 315, 316, 317, 318, 319, 320, 321, 322, 323, 324
 325, 326, 327, 328, 329, 330, 331, 332, 333, 334, 335, 336, 337, 338, 339, 340
 341, 342, 343, 344, 345, 346, 347, 348, 349, 350, 351, 352, 353, 354, 355, 356
 357, 358, 359, 360, 361, 362, 363, 364, 365, 366, 367, 368, 369, 370, 371, 372
 401, 402, 403, 404, 405, 406, 407, 408, 409, 410, 411, 412, 413, 414, 415, 416
 417, 418, 419, 420, 421, 422, 423, 424, 425, 426, 427, 428, 429, 430, 431, 432
** ... 25 like lines cut
** Section: Section-1-EALL
*Shell Section, elset=EALL, material=A1
2., 3
*End Part
**  
**
** ASSEMBLY
**
*Assembly, name=Assembly
**  
*Instance, name=PART-1-1, part=PART-1
*End Instance
**  
*Nset, nset=BOT, instance=PART-1-1, generate
  1,  73,   1
*Elset, elset=EDGE, instance=PART-1-1, generate
  72,  972,  100
*Nset, nset=NALL, instance=PART-1-1
     1,     2,     3,     4,     5,     6,     7,     8,     9,    10,    11,    12,    13,    14,    15,    16
    17,    18,    19,    20,    21,    22,    23,    24,    25,    26,    27,    28,    29,    30,    31,    32
    33,    34,    35,    36,    37,    38,    39,    40,    41,    42,    43,    44,    45,    46,    47,    48
    49,    50,    51,    52,    53,    54,    55,    56,    57,    58,    59,    60,    61,    62,    63,    64
    65,    66,    67,    68,    69,    70,    71,    72,    73,  1001,  1002,  1003,  1004,  1005,  1006,  1007
  1008,  1009,  1010,  1011,  1012,  1013,  1014,  1015,  1016,  1017,  1018,  1019,  1020,  1021,  1022,  1023
  1024,  1025,  1026,  1027,  1028,  1029,  1030,  1031,  1032,  1033,  1034,  1035,  1036,  1037,  1038,  1039
  1040,  1041,  1042,  1043,  1044,  1045,  1046,  1047,  1048,  1049,  1050,  1051,  1052,  1053,  1054,  1055
  1056,  1057,  1058,  1059,  1060,  1061,  1062,  1063,  1064,  1065,  1066,  1067,  1068,  1069,  1070,  1071
  1072,  1073,  2001,  2002,  2003,  2004,  2005,  2006,  2007,  2008,  2009,  2010,  2011,  2012,  2013,  2014
  2015,  2016,  2017,  2018,  2019,  2020,  2021,  2022,  2023,  2024,  2025,  2026,  2027,  2028,  2029,  2030
  2031,  2032,  2033,  2034,  2035,  2036,  2037,  2038,  2039,  2040,  2041,  2042,  2043,  2044,  2045,  2046
  2047,  2048,  2049,  2050,  2051,  2052,  2053,  2054,  2055,  2056,  2057,  2058,  2059,  2060,  2061,  2062
  2063,  2064,  2065,  2066,  2067,  2068,  2069,  2070,  2071,  2072,  2073,  3001,  3002,  3003,  3004,  3005
  3006,  3007,  3008,  3009,  3010,  3011,  3012,  3013,  3014,  3015,  3016,  3017,  3018,  3019,  3020,  3021
  3022,  3023,  3024,  3025,  3026,  3027,  3028,  3029,  3030,  3031,  3032,  3033,  3034,  3035,  3036,  3037
  3038,  3039,  3040,  3041,  3042,  3043,  3044,  3045,  3046,  3047,  3048,  3049,  3050,  3051,  3052,  3053
  3054,  3055,  3056,  3057,  3058,  3059,  3060,  3061,  3062,  3063,  3064,  3065,  3066,  3067,  3068,  3069
  3070,  3071,  3072,  3073,  4001,  4002,  4003,  4004,  4005,  4006,  4007,  4008,  4009,  4010,  4011,  4012
  4013,  4014,  4015,  4016,  4017,  4018,  4019,  4020,  4021,  4022,  4023,  4024,  4025,  4026,  4027,  4028
** ... 31 like lines cut
*Nset, nset=R14-B, instance=PART-1-1, generate
 1,  9,  1
*Nset, nset=R14-T, instance=PART-1-1, generate
 10001,  10009,      1
*Nset, nset=R46-B, instance=PART-1-1, generate
  9,  73,   1
*Nset, nset=R46-T, instance=PART-1-1, generate
 10009,  10073,      1
*Nset, nset=TIP, instance=PART-1-1, generate
    73,  10073,   1000
*Nset, nset=TOP, instance=PART-1-1, generate
 10001,  10073,      1
*Nset, nset=WALL, instance=PART-1-1, generate
     1,  10001,   1000
*Nset, nset=_M14, internal, instance=PART-1-1
 100001,
*Nset, nset=_M15, internal, instance=PART-1-1
 100001,
*Elset, elset=_EDGE_E2, internal, instance=PART-1-1, generate
  72,  972,  100
*Surface, type=ELEMENT, name=EDGE
_EDGE_E2, E2
** Constraint: TIPLOAD
*Coupling, constraint name=TIPLOAD, ref node=_M14, surface=EDGE
*Distributing, weighting method=UNIFORM
*End Assembly
** 
** MATERIALS
** 
*Material, name=A1
*Elastic
3300., 0.35
** 
** BOUNDARY CONDITIONS
** 
** Name: Disp-BC-1 Type: Displacement/Rotation
*Boundary
WALL, 1, 1
WALL, 2, 2
WALL, 3, 3
WALL, 4, 4
WALL, 5, 5
WALL, 6, 6
** ----------------------------------------------------------------
** 
** STEP: Step-1
** 
*Step, name=Step-1, nlgeom=NO, perturbation
*Static
** 
** LOADS
** 
** Name: CFORCE-1   Type: Concentrated force
*Cload
_M15, 3, 1.
** 
** OUTPUT REQUESTS
** 
** 
** FIELD OUTPUT: F-Output-1
** 
*Output, field, variable=PRESELECT
** 
** HISTORY OUTPUT: H-Output-1
** 
*Output, history, variable=PRESELECT
*End Step
